Version 4
SHEET 1 880 680
WIRE 432 32 112 32
WIRE 432 48 432 32
WIRE 112 80 112 32
WIRE 192 80 112 80
WIRE 288 80 256 80
WIRE 256 144 192 144
WIRE -48 160 -192 160
WIRE 112 160 112 80
WIRE 112 160 32 160
WIRE 160 160 112 160
WIRE 288 176 288 80
WIRE 288 176 224 176
WIRE 352 176 288 176
WIRE 432 176 432 128
WIRE 432 176 416 176
WIRE 464 176 432 176
WIRE 160 192 96 192
WIRE 192 208 192 192
WIRE 96 256 96 192
WIRE 192 272 192 208
WIRE 192 272 160 272
WIRE 160 288 160 272
WIRE 256 288 256 144
FLAG 96 256 0
FLAG 464 256 0
FLAG -192 240 0
FLAG 256 368 0
FLAG 160 368 0
SYMBOL diode 352 192 R270
WINDOW 0 32 32 VTop 2
WINDOW 3 0 32 VBottom 2
SYMATTR InstName D1
SYMBOL res 48 144 R90
WINDOW 0 0 56 VBottom 2
WINDOW 3 32 56 VTop 2
SYMATTR InstName R1
SYMATTR Value 1k
SYMBOL diode 192 96 R270
WINDOW 0 32 32 VTop 2
WINDOW 3 0 32 VBottom 2
SYMATTR InstName D2
SYMBOL res 416 32 R0
SYMATTR InstName R2
SYMATTR Value 1k
SYMBOL res 448 160 R0
SYMATTR InstName R3
SYMATTR Value 1k
SYMBOL voltage -192 144 R0
WINDOW 123 0 0 Left 0
WINDOW 39 0 0 Left 0
SYMATTR InstName V1
SYMATTR Value SINE(0 10 50)
SYMBOL OpAmps\\AD824 192 112 R0
SYMATTR InstName U1
SYMBOL voltage 256 272 R0
WINDOW 123 0 0 Left 0
WINDOW 39 0 0 Left 0
SYMATTR InstName V2
SYMATTR Value 13V
SYMBOL voltage 160 272 R0
WINDOW 123 0 0 Left 0
WINDOW 39 0 0 Left 0
SYMATTR InstName V3
SYMATTR Value -13V
TEXT -226 280 Left 2 !.tran 0.1
